L6/1726536/Trafos.dss
! ==========================================================
! TRANSFORMADORES DE DISTRIBUICAO — gerados de UNTRMT/EQTRMT
! Secundario 1F/2F: 3 enrolamentos com derivacao central
! Neutro no no 4, aterrado em _ATERRAMENTO.dss
! Kv de BT conforme TEN_LIN_SE da BDGD
! ==========================================================
New Transformer.390185885_390185886 phases=3 windings=2 Xhl=4.960
~ wdg=1 bus=100_390185875.1.2.3 conn=delta Kv=34.5 Kva=1670.0 %R=0.330
~ wdg=2 bus=segm_390185860.1.2.3.4 conn=wye Kv=13.8000 Kva=1670.0 %R=0.330
New Transformer.390185428_2605141935 phases=3 windings=2 Xhl=2.058
~ wdg=1 bus=segm_390185441.1.2.3 conn=delta Kv=34.5 Kva=1000.0 %R=0.710
~ wdg=2 bus=100_390185458.1.2.3.4 conn=wye Kv=13.8000 Kva=1000.0 %R=0.710
New Transformer.390185544_2681508536 phases=3 windings=2 Xhl=2.058
~ wdg=1 bus=100_390185574.1.2.3 conn=delta Kv=34.5 Kva=1000.0 %R=0.710
~ wdg=2 bus=segm_390185557.1.2.3.4 conn=wye Kv=13.8000 Kva=1000.0 %R=0.710
New Transformer.390185659_390185660 phases=3 windings=2 Xhl=4.680
~ wdg=1 bus=segm_390185672.1.2.3 conn=delta Kv=34.5 Kva=1000.0 %R=0.530
~ wdg=2 bus=100_390185689.1.2.3.4 conn=wye Kv=13.8000 Kva=1000.0 %R=0.530
New Transformer.325957051_2138300409 phases=3 windings=2 Xhl=4.900
~ wdg=1 bus=node_2449044360.1.2.3 conn=delta Kv=34.5 Kva=300.0 %R=0.495
~ wdg=2 bus=node_2449044343.1.2.3.4 conn=wye Kv=0.2200 Kva=300.0 %R=0.495
New Transformer.1359673660_2565033855 phases=3 windings=2 Xhl=4.880
~ wdg=1 bus=node_1654216311.1.2.3 conn=delta Kv=34.5 Kva=300.0 %R=0.540
~ wdg=2 bus=node_1654216341.1.2.3.4 conn=wye Kv=0.2200 Kva=300.0 %R=0.540
New Transformer.1359673722_1547132823 phases=3 windings=2 Xhl=4.880
~ wdg=1 bus=node_1866585154.1.2.3 conn=delta Kv=34.5 Kva=300.0 %R=0.540
~ wdg=2 bus=node_1866585160.1.2.3.4 conn=wye Kv=0.2200 Kva=300.0 %R=0.540
New Transformer.1359673762_2575176325 phases=3 windings=2 Xhl=4.880
~ wdg=1 bus=node_1866585818.1.2.3 conn=delta Kv=34.5 Kva=300.0 %R=0.540
~ wdg=2 bus=node_1654216509.1.2.3.4 conn=wye Kv=0.2200 Kva=300.0 %R=0.540
New Transformer.1461931191_1461931192 phases=3 windings=2 Xhl=4.880
~ wdg=1 bus=node_1759415459.1.2.3 conn=delta Kv=34.5 Kva=300.0 %R=0.540
~ wdg=2 bus=node_1759415445.1.2.3.4 conn=wye Kv=0.2200 Kva=300.0 %R=0.540
New Transformer.2573223360_2544603659 phases=3 windings=2 Xhl=4.880
~ wdg=1 bus=node_2724935225.1.2.3 conn=delta Kv=34.5 Kva=300.0 %R=0.540
~ wdg=2 bus=node_2724934840.1.2.3.4 conn=wye Kv=0.2200 Kva=300.0 %R=0.540
New Transformer.2709522664_2709522665 phases=3 windings=2 Xhl=4.900
~ wdg=1 bus=node_109730283.1.2.3 conn=delta Kv=34.5 Kva=300.0 %R=0.495
~ wdg=2 bus=node_423619850.1.2.3.4 conn=wye Kv=0.2200 Kva=300.0 %R=0.495
New Transformer.2635262844_2635262849 phases=3 windings=2 Xhl=4.880
~ wdg=1 bus=node_2793600399.1.2.3 conn=delta Kv=34.5 Kva=300.0 %R=0.540
~ wdg=2 bus=node_2793600355.1.2.3.4 conn=wye Kv=0.2200 Kva=300.0 %R=0.540
New Transformer.2596703150_2596703149 phases=3 windings=2 Xhl=3.820
~ wdg=1 bus=node_2749836099.1.2.3 conn=delta Kv=34.5 Kva=150.0 %R=0.600
~ wdg=2 bus=node_2749836032.1.2.3.4 conn=wye Kv=0.2200 Kva=150.0 %R=0.600
New Transformer.2581261762_2581261770 phases=3 windings=2 Xhl=3.820
~ wdg=1 bus=node_2733601057.1.2.3 conn=delta Kv=34.5 Kva=150.0 %R=0.600
~ wdg=2 bus=node_2733600925.1.2.3.4 conn=wye Kv=0.2200 Kva=150.0 %R=0.600
New Transformer.2591107251_2591107250 phases=3 windings=2 Xhl=3.820
~ wdg=1 bus=node_2744226736.1.2.3 conn=delta Kv=34.5 Kva=150.0 %R=0.600
~ wdg=2 bus=node_2744226723.1.2.3.4 conn=wye Kv=0.2200 Kva=150.0 %R=0.600
New Transformer.326104424_1652305457 phases=3 windings=2 Xhl=3.840
~ wdg=1 bus=node_442941628.1.2.3 conn=delta Kv=34.5 Kva=150.0 %R=0.565
~ wdg=2 bus=node_423175576.1.2.3.4 conn=wye Kv=0.2200 Kva=150.0 %R=0.565
New Transformer.1597501201_2667613723 phases=3 windings=2 Xhl=3.790
~ wdg=1 bus=node_1917747808.1.2.3 conn=delta Kv=34.5 Kva=150.0 %R=0.640
~ wdg=2 bus=node_1917747819.1.2.3.4 conn=wye Kv=0.2200 Kva=150.0 %R=0.640
New Transformer.1583348520_2651137687 phases=3 windings=2 Xhl=4.960
~ wdg=1 bus=node_1903625492.1.2.3 conn=delta Kv=34.5 Kva=150.0 %R=0.305
~ wdg=2 bus=node_1903625033.1.2.3.4 conn=wye Kv=0.2200 Kva=150.0 %R=0.305
New Transformer.2082453130_2772167754 phases=3 windings=2 Xhl=3.790
~ wdg=1 bus=node_2394965952.1.2.3 conn=delta Kv=34.5 Kva=150.0 %R=0.640
~ wdg=2 bus=node_2394965962.1.2.3.4 conn=wye Kv=0.2200 Kva=150.0 %R=0.640
New Transformer.326523373_2709205254 phases=3 windings=2 Xhl=3.820
~ wdg=1 bus=node_435766322.1.2.3 conn=delta Kv=34.5 Kva=150.0 %R=0.600
~ wdg=2 bus=node_456169974.1.2.3.4 conn=wye Kv=0.2200 Kva=150.0 %R=0.600
New Transformer.326523059_1962259410 phases=3 windings=2 Xhl=3.840
~ wdg=1 bus=node_442807828.1.2.3 conn=delta Kv=34.5 Kva=150.0 %R=0.565
~ wdg=2 bus=node_423392318.1.2.3.4 conn=wye Kv=0.2200 Kva=150.0 %R=0.565
New Transformer.2052940203_2566120787 phases=3 windings=2 Xhl=3.790
~ wdg=1 bus=node_2367694750.1.2.3 conn=delta Kv=34.5 Kva=150.0 %R=0.640
~ wdg=2 bus=node_2367694824.1.2.3.4 conn=wye Kv=0.2200 Kva=150.0 %R=0.640
New Transformer.1933691431_1933691435 phases=3 windings=2 Xhl=3.790
~ wdg=1 bus=node_2843156824.1.2.3 conn=delta Kv=34.5 Kva=150.0 %R=0.640
~ wdg=2 bus=node_2748097011.1.2.3.4 conn=wye Kv=0.2200 Kva=150.0 %R=0.640
New Transformer.1422134226_1954757625 phases=3 windings=2 Xhl=3.840
~ wdg=1 bus=node_1329225131.1.2.3 conn=delta Kv=34.5 Kva=150.0 %R=0.565
~ wdg=2 bus=node_1329225041.1.2.3.4 conn=wye Kv=0.2200 Kva=150.0 %R=0.565
New Transformer.1416934123_1416934124 phases=3 windings=2 Xhl=3.840
~ wdg=1 bus=node_442388060.1.2.3 conn=delta Kv=34.5 Kva=150.0 %R=0.565
~ wdg=2 bus=node_423144956.1.2.3.4 conn=wye Kv=0.2200 Kva=150.0 %R=0.565
New Transformer.780473269_2633153653 phases=3 windings=2 Xhl=3.820
~ wdg=1 bus=node_2901975209.1.2.3 conn=delta Kv=34.5 Kva=150.0 %R=0.600
~ wdg=2 bus=node_2901975200.1.2.3.4 conn=wye Kv=0.2200 Kva=150.0 %R=0.600
New Transformer.681762696_2660941146 phases=3 windings=2 Xhl=4.960
~ wdg=1 bus=node_954551924.1.2.3 conn=delta Kv=34.5 Kva=150.0 %R=0.305
~ wdg=2 bus=node_954551967.1.2.3.4 conn=wye Kv=0.2200 Kva=150.0 %R=0.305
New Transformer.326254147_2565244516 phases=3 windings=2 Xhl=3.840
~ wdg=1 bus=node_2712727059.1.2.3 conn=delta Kv=34.5 Kva=150.0 %R=0.565
~ wdg=2 bus=node_454231672.1.2.3.4 conn=wye Kv=0.2200 Kva=150.0 %R=0.565
New Transformer.326254018_1640419732 phases=3 windings=2 Xhl=3.790
~ wdg=1 bus=node_435765477.1.2.3 conn=delta Kv=34.5 Kva=150.0 %R=0.640
~ wdg=2 bus=node_419813848.1.2.3.4 conn=wye Kv=0.2200 Kva=150.0 %R=0.640
New Transformer.2599111176_2599111175 phases=3 windings=2 Xhl=3.790
~ wdg=1 bus=node_2752402510.1.2.3 conn=delta Kv=34.5 Kva=150.0 %R=0.640
~ wdg=2 bus=node_2752402520.1.2.3.4 conn=wye Kv=0.2200 Kva=150.0 %R=0.640
New Transformer.325955691_2613235433 phases=3 windings=2 Xhl=3.790
~ wdg=1 bus=node_1956818798.1.2.3 conn=delta Kv=34.5 Kva=150.0 %R=0.640
~ wdg=2 bus=node_1956818809.1.2.3.4 conn=wye Kv=0.2200 Kva=150.0 %R=0.640
New Transformer.326384615_2382710543 phases=3 windings=2 Xhl=3.790
~ wdg=1 bus=node_428597108.1.2.3 conn=delta Kv=34.5 Kva=150.0 %R=0.640
~ wdg=2 bus=node_419959630.1.2.3.4 conn=wye Kv=0.2200 Kva=150.0 %R=0.640
New Transformer.326383670_326707138 phases=3 windings=2 Xhl=3.690
~ wdg=1 bus=node_435924951.1.2.3 conn=delta Kv=34.5 Kva=75.0 %R=0.765
~ wdg=2 bus=node_419927346.1.2.3.4 conn=wye Kv=0.2200 Kva=75.0 %R=0.765
New Transformer.326384889_1612293944 phases=3 windings=2 Xhl=3.690
~ wdg=1 bus=node_428597028.1.2.3 conn=delta Kv=34.5 Kva=75.0 %R=0.765
~ wdg=2 bus=node_419815729.1.2.3.4 conn=wye Kv=0.2200 Kva=75.0 %R=0.765
New Transformer.326385706_326723260 phases=3 windings=2 Xhl=3.770
~ wdg=1 bus=node_442540245.1.2.3 conn=delta Kv=34.5 Kva=75.0 %R=0.670
~ wdg=2 bus=node_423147725.1.2.3.4 conn=wye Kv=0.2200 Kva=75.0 %R=0.670
New Transformer.326385902_2638517385 phases=3 windings=2 Xhl=3.770
~ wdg=1 bus=node_433081403.1.2.3 conn=delta Kv=34.5 Kva=75.0 %R=0.670
~ wdg=2 bus=node_423691562.1.2.3.4 conn=wye Kv=0.2200 Kva=75.0 %R=0.670
New Transformer.326385806_326723228 phases=3 windings=2 Xhl=3.770
~ wdg=1 bus=node_436221468.1.2.3 conn=delta Kv=34.5 Kva=75.0 %R=0.670
~ wdg=2 bus=node_765167198.1.2.3.4 conn=wye Kv=0.2200 Kva=75.0 %R=0.670
New Transformer.326386720_2438313548 phases=3 windings=2 Xhl=3.690
~ wdg=1 bus=node_428599317.1.2.3 conn=delta Kv=34.5 Kva=75.0 %R=0.765
~ wdg=2 bus=node_423673637.1.2.3.4 conn=wye Kv=0.2200 Kva=75.0 %R=0.765
New Transformer.325953872_2622848198 phases=3 windings=2 Xhl=3.770
~ wdg=1 bus=node_442941393.1.2.3 conn=delta Kv=34.5 Kva=75.0 %R=0.670
~ wdg=2 bus=node_423161165.1.2.3.4 conn=wye Kv=0.2200 Kva=75.0 %R=0.670
New Transformer.1003723013_1003723014 phases=3 windings=2 Xhl=3.690
~ wdg=1 bus=node_1266254003.1.2.3 conn=delta Kv=34.5 Kva=75.0 %R=0.765
~ wdg=2 bus=node_1266254134.1.2.3.4 conn=wye Kv=0.2200 Kva=75.0 %R=0.765
New Transformer.325954287_2561925130 phases=3 windings=2 Xhl=3.770
~ wdg=1 bus=node_1144668772.1.2.3 conn=delta Kv=34.5 Kva=75.0 %R=0.670
~ wdg=2 bus=node_1144668786.1.2.3.4 conn=wye Kv=0.2200 Kva=75.0 %R=0.670
New Transformer.1007741741_2189690953 phases=3 windings=2 Xhl=3.690
~ wdg=1 bus=node_1271140385.1.2.3 conn=delta Kv=34.5 Kva=75.0 %R=0.765
~ wdg=2 bus=node_1271140435.1.2.3.4 conn=wye Kv=0.2200 Kva=75.0 %R=0.765
New Transformer.325954878_1427136671 phases=3 windings=2 Xhl=3.770
~ wdg=1 bus=node_432137467.1.2.3 conn=delta Kv=34.5 Kva=75.0 %R=0.670
~ wdg=2 bus=node_420145101.1.2.3.4 conn=wye Kv=0.2200 Kva=75.0 %R=0.670
New Transformer.325955185_326789547 phases=3 windings=2 Xhl=3.770
~ wdg=1 bus=node_435451397.1.2.3 conn=delta Kv=34.5 Kva=75.0 %R=0.670
~ wdg=2 bus=node_418165351.1.2.3.4 conn=wye Kv=0.2200 Kva=75.0 %R=0.670
New Transformer.325955362_2436303956 phases=3 windings=2 Xhl=3.690
~ wdg=1 bus=node_431502518.1.2.3 conn=delta Kv=34.5 Kva=75.0 %R=0.765
~ wdg=2 bus=node_419926302.1.2.3.4 conn=wye Kv=0.2200 Kva=75.0 %R=0.765
New Transformer.325956050_1175259254 phases=3 windings=2 Xhl=3.690
~ wdg=1 bus=node_436077216.1.2.3 conn=delta Kv=34.5 Kva=75.0 %R=0.765
~ wdg=2 bus=node_423680696.1.2.3.4 conn=wye Kv=0.2200 Kva=75.0 %R=0.765
New Transformer.325956661_2682273625 phases=3 windings=2 Xhl=4.960
~ wdg=1 bus=node_2472334997.1.2.3 conn=delta Kv=34.5 Kva=75.0 %R=0.305
~ wdg=2 bus=node_2472334987.1.2.3.4 conn=wye Kv=0.2200 Kva=75.0 %R=0.305
New Transformer.325957087_326786820 phases=3 windings=2 Xhl=3.770
~ wdg=1 bus=node_442689550.1.2.3 conn=delta Kv=34.5 Kva=75.0 %R=0.670
~ wdg=2 bus=node_423133101.1.2.3.4 conn=wye Kv=0.2200 Kva=75.0 %R=0.670
New Transformer.325957055_326746982 phases=3 windings=2 Xhl=3.690
~ wdg=1 bus=node_428431342.1.2.3 conn=delta Kv=34.5 Kva=75.0 %R=0.765
~ wdg=2 bus=node_419222701.1.2.3.4 conn=wye Kv=0.2200 Kva=75.0 %R=0.765
New Transformer.325957093_1722765685 phases=3 windings=2 Xhl=3.690
~ wdg=1 bus=node_431349414.1.2.3 conn=delta Kv=34.5 Kva=75.0 %R=0.765
~ wdg=2 bus=node_419992607.1.2.3.4 conn=wye Kv=0.2200 Kva=75.0 %R=0.765
New Transformer.1064882398_1064882399 phases=3 windings=2 Xhl=3.690
~ wdg=1 bus=node_1331746096.1.2.3 conn=delta Kv=34.5 Kva=75.0 %R=0.765
~ wdg=2 bus=node_1331746212.1.2.3.4 conn=wye Kv=0.2200 Kva=75.0 %R=0.765
New Transformer.2284657119_2284657123 phases=3 windings=2 Xhl=3.770
~ wdg=1 bus=node_2549098900.1.2.3 conn=delta Kv=34.5 Kva=75.0 %R=0.670
~ wdg=2 bus=node_2549098839.1.2.3.4 conn=wye Kv=0.2200 Kva=75.0 %R=0.670
New Transformer.1066496585_1066496586 phases=3 windings=2 Xhl=3.690
~ wdg=1 bus=node_436693465.1.2.3 conn=delta Kv=34.5 Kva=75.0 %R=0.765
~ wdg=2 bus=node_420105883.1.2.3.4 conn=wye Kv=0.2200 Kva=75.0 %R=0.765
New Transformer.2364207775_2364207781 phases=3 windings=2 Xhl=3.770
~ wdg=1 bus=node_2529029026.1.2.3 conn=delta Kv=34.5 Kva=75.0 %R=0.670
~ wdg=2 bus=node_2529028925.1.2.3.4 conn=wye Kv=0.2200 Kva=75.0 %R=0.670
New Transformer.1089310721_1089310722 phases=3 windings=2 Xhl=3.770
~ wdg=1 bus=node_1356835586.1.2.3 conn=delta Kv=34.5 Kva=75.0 %R=0.670
~ wdg=2 bus=node_1356835552.1.2.3.4 conn=wye Kv=0.2200 Kva=75.0 %R=0.670
New Transformer.2334832579_2334832584 phases=3 windings=2 Xhl=3.770
~ wdg=1 bus=node_2564475794.1.2.3 conn=delta Kv=34.5 Kva=75.0 %R=0.670
~ wdg=2 bus=node_2564475764.1.2.3.4 conn=wye Kv=0.2200 Kva=75.0 %R=0.670
New Transformer.325523270_1060231809 phases=3 windings=2 Xhl=3.770
~ wdg=1 bus=node_431347700.1.2.3 conn=delta Kv=34.5 Kva=75.0 %R=0.670
~ wdg=2 bus=node_423146717.1.2.3.4 conn=wye Kv=0.2200 Kva=75.0 %R=0.670
New Transformer.326253835_326747596 phases=3 windings=2 Xhl=3.770
~ wdg=1 bus=node_425216699.1.2.3 conn=delta Kv=34.5 Kva=75.0 %R=0.670
~ wdg=2 bus=node_420063568.1.2.3.4 conn=wye Kv=0.2200 Kva=75.0 %R=0.670
New Transformer.326255633_326789569 phases=3 windings=2 Xhl=3.770
~ wdg=1 bus=node_436222743.1.2.3 conn=delta Kv=34.5 Kva=75.0 %R=0.670
~ wdg=2 bus=node_423146705.1.2.3.4 conn=wye Kv=0.2200 Kva=75.0 %R=0.670
New Transformer.2569822291_2569822290 phases=3 windings=2 Xhl=3.770
~ wdg=1 bus=node_2720207012.1.2.3 conn=delta Kv=34.5 Kva=75.0 %R=0.670
~ wdg=2 bus=node_2720206866.1.2.3.4 conn=wye Kv=0.2200 Kva=75.0 %R=0.670
New Transformer.326254531_1931419795 phases=3 windings=2 Xhl=3.690
~ wdg=1 bus=node_431346060.1.2.3 conn=delta Kv=34.5 Kva=75.0 %R=0.765
~ wdg=2 bus=node_419994689.1.2.3.4 conn=wye Kv=0.2200 Kva=75.0 %R=0.765
New Transformer.326254900_441882658 phases=3 windings=2 Xhl=3.770
~ wdg=1 bus=node_432137432.1.2.3 conn=delta Kv=34.5 Kva=75.0 %R=0.670
~ wdg=2 bus=node_420146286.1.2.3.4 conn=wye Kv=0.2200 Kva=75.0 %R=0.670
New Transformer.326254874_326705571 phases=3 windings=2 Xhl=3.690
~ wdg=1 bus=node_431346070.1.2.3 conn=delta Kv=34.5 Kva=75.0 %R=0.765
~ wdg=2 bus=node_419994692.1.2.3.4 conn=wye Kv=0.2200 Kva=75.0 %R=0.765
New Transformer.326255741_1334665532 phases=3 windings=2 Xhl=3.770
~ wdg=1 bus=node_442253481.1.2.3 conn=delta Kv=34.5 Kva=75.0 %R=0.670
~ wdg=2 bus=node_423144149.1.2.3.4 conn=wye Kv=0.2200 Kva=75.0 %R=0.670
New Transformer.707814451_707814452 phases=3 windings=2 Xhl=3.770
~ wdg=1 bus=node_980560790.1.2.3 conn=delta Kv=34.5 Kva=75.0 %R=0.670
~ wdg=2 bus=node_980560693.1.2.3.4 conn=wye Kv=0.2200 Kva=75.0 %R=0.670
New Transformer.1182589101_1182589102 phases=3 windings=2 Xhl=3.770
~ wdg=1 bus=node_1249644318.1.2.3 conn=delta Kv=34.5 Kva=75.0 %R=0.670
~ wdg=2 bus=node_1249644221.1.2.3.4 conn=wye Kv=0.2200 Kva=75.0 %R=0.670
New Transformer.861161774_861161773 phases=3 windings=2 Xhl=3.690
~ wdg=1 bus=node_1129167566.1.2.3 conn=delta Kv=34.5 Kva=75.0 %R=0.765
~ wdg=2 bus=node_1129167516.1.2.3.4 conn=wye Kv=0.2200 Kva=75.0 %R=0.765
New Transformer.874653478_874653479 phases=3 windings=2 Xhl=3.690
~ wdg=1 bus=node_1141302293.1.2.3 conn=delta Kv=34.5 Kva=75.0 %R=0.765
~ wdg=2 bus=node_1141302262.1.2.3.4 conn=wye Kv=0.2200 Kva=75.0 %R=0.765
New Transformer.326257726_2214420211 phases=3 windings=2 Xhl=3.770
~ wdg=1 bus=node_2541897967.1.2.3 conn=delta Kv=34.5 Kva=75.0 %R=0.670
~ wdg=2 bus=node_2541897937.1.2.3.4 conn=wye Kv=0.2200 Kva=75.0 %R=0.670
New Transformer.1402897071_1402897070 phases=3 windings=2 Xhl=3.690
~ wdg=1 bus=node_1698371585.1.2.3 conn=delta Kv=34.5 Kva=75.0 %R=0.765
~ wdg=2 bus=node_1698371558.1.2.3.4 conn=wye Kv=0.2200 Kva=75.0 %R=0.765
New Transformer.1869500749_1869500748 phases=3 windings=2 Xhl=3.770
~ wdg=1 bus=node_2190516776.1.2.3 conn=delta Kv=34.5 Kva=75.0 %R=0.670
~ wdg=2 bus=node_2190516587.1.2.3.4 conn=wye Kv=0.2200 Kva=75.0 %R=0.670
New Transformer.1320063132_1578874752 phases=3 windings=2 Xhl=3.770
~ wdg=1 bus=node_1617237824.1.2.3 conn=delta Kv=34.5 Kva=75.0 %R=0.670
~ wdg=2 bus=node_1617240014.1.2.3.4 conn=wye Kv=0.2200 Kva=75.0 %R=0.670
New Transformer.1320063197_1578874865 phases=3 windings=2 Xhl=3.770
~ wdg=1 bus=node_1617237679.1.2.3 conn=delta Kv=34.5 Kva=75.0 %R=0.670
~ wdg=2 bus=node_1617239035.1.2.3.4 conn=wye Kv=0.2200 Kva=75.0 %R=0.670
New Transformer.1320063278_1578874952 phases=3 windings=2 Xhl=3.770
~ wdg=1 bus=node_1617238053.1.2.3 conn=delta Kv=34.5 Kva=75.0 %R=0.670
~ wdg=2 bus=node_1617240339.1.2.3.4 conn=wye Kv=0.2200 Kva=75.0 %R=0.670
New Transformer.1320063379_1962263532 phases=3 windings=2 Xhl=3.770
~ wdg=1 bus=node_1617238129.1.2.3 conn=delta Kv=34.5 Kva=75.0 %R=0.670
~ wdg=2 bus=node_1617239244.1.2.3.4 conn=wye Kv=0.2200 Kva=75.0 %R=0.670
New Transformer.958292096_1409582792 phases=3 windings=2 Xhl=3.690
~ wdg=1 bus=node_1220475150.1.2.3 conn=delta Kv=34.5 Kva=75.0 %R=0.765
~ wdg=2 bus=node_1220475143.1.2.3.4 conn=wye Kv=0.2200 Kva=75.0 %R=0.765
New Transformer.1420794448_1420794447 phases=3 windings=2 Xhl=3.770
~ wdg=1 bus=node_442117632.1.2.3 conn=delta Kv=34.5 Kva=75.0 %R=0.670
~ wdg=2 bus=node_423144146.1.2.3.4 conn=wye Kv=0.2200 Kva=75.0 %R=0.670
New Transformer.1662856019_1662856018 phases=3 windings=2 Xhl=3.690
~ wdg=1 bus=node_1984262051.1.2.3 conn=delta Kv=34.5 Kva=75.0 %R=0.765
~ wdg=2 bus=node_1984261909.1.2.3.4 conn=wye Kv=0.2200 Kva=75.0 %R=0.765
New Transformer.1921955785_1921955784 phases=3 windings=2 Xhl=3.770
~ wdg=1 bus=node_2238930279.1.2.3 conn=delta Kv=34.5 Kva=75.0 %R=0.670
~ wdg=2 bus=node_2238930294.1.2.3.4 conn=wye Kv=0.2200 Kva=75.0 %R=0.670
New Transformer.1441564809_2214505976 phases=3 windings=2 Xhl=3.690
~ wdg=1 bus=node_1737842596.1.2.3 conn=delta Kv=34.5 Kva=75.0 %R=0.765
~ wdg=2 bus=node_1737842486.1.2.3.4 conn=wye Kv=0.2200 Kva=75.0 %R=0.765
New Transformer.1941824482_1941824481 phases=3 windings=2 Xhl=3.690
~ wdg=1 bus=node_2300356405.1.2.3 conn=delta Kv=34.5 Kva=75.0 %R=0.765
~ wdg=2 bus=node_2300356625.1.2.3.4 conn=wye Kv=0.2200 Kva=75.0 %R=0.765
New Transformer.1948823405_1948823409 phases=3 windings=2 Xhl=3.690
~ wdg=1 bus=node_2265965366.1.2.3 conn=delta Kv=34.5 Kva=75.0 %R=0.765
~ wdg=2 bus=node_2265965272.1.2.3.4 conn=wye Kv=0.2200 Kva=75.0 %R=0.765
New Transformer.1937379876_1937379875 phases=3 windings=2 Xhl=3.690
~ wdg=1 bus=node_2254491842.1.2.3 conn=delta Kv=34.5 Kva=75.0 %R=0.765
~ wdg=2 bus=node_2254491764.1.2.3.4 conn=wye Kv=0.2200 Kva=75.0 %R=0.765
New Transformer.326520423_2691574836 phases=3 windings=2 Xhl=3.770
~ wdg=1 bus=node_442939133.1.2.3 conn=delta Kv=34.5 Kva=75.0 %R=0.670
~ wdg=2 bus=node_419481099.1.2.3.4 conn=wye Kv=0.2200 Kva=75.0 %R=0.670
New Transformer.1698655131_1698655130 phases=3 windings=2 Xhl=3.690
~ wdg=1 bus=node_2024402651.1.2.3 conn=delta Kv=34.5 Kva=75.0 %R=0.765
~ wdg=2 bus=node_2024402450.1.2.3.4 conn=wye Kv=0.2200 Kva=75.0 %R=0.765
New Transformer.1952035280_2603349867 phases=3 windings=2 Xhl=3.690
~ wdg=1 bus=node_2269284750.1.2.3 conn=delta Kv=34.5 Kva=75.0 %R=0.765
~ wdg=2 bus=node_2269284601.1.2.3.4 conn=wye Kv=0.2200 Kva=75.0 %R=0.765
New Transformer.1976846060_2655461322 phases=3 windings=2 Xhl=3.770
~ wdg=1 bus=node_2296083560.1.2.3 conn=delta Kv=34.5 Kva=75.0 %R=0.670
~ wdg=2 bus=node_2296083590.1.2.3.4 conn=wye Kv=0.2200 Kva=75.0 %R=0.670
New Transformer.326520227_326724417 phases=3 windings=2 Xhl=3.690
~ wdg=1 bus=node_435923541.1.2.3 conn=delta Kv=34.5 Kva=75.0 %R=0.765
~ wdg=2 bus=node_423626997.1.2.3.4 conn=wye Kv=0.2200 Kva=75.0 %R=0.765
New Transformer.326520925_2618743459 phases=3 windings=2 Xhl=3.770
~ wdg=1 bus=node_428597248.1.2.3 conn=delta Kv=34.5 Kva=75.0 %R=0.670
~ wdg=2 bus=node_419993255.1.2.3.4 conn=wye Kv=0.2200 Kva=75.0 %R=0.670
New Transformer.326521161_1724637866 phases=3 windings=2 Xhl=3.690
~ wdg=1 bus=node_436534985.1.2.3 conn=delta Kv=34.5 Kva=75.0 %R=0.765
~ wdg=2 bus=node_420060790.1.2.3.4 conn=wye Kv=0.2200 Kva=75.0 %R=0.765
New Transformer.326521627_326704965 phases=3 windings=2 Xhl=3.770
~ wdg=1 bus=node_442808873.1.2.3 conn=delta Kv=34.5 Kva=75.0 %R=0.670
~ wdg=2 bus=node_423133095.1.2.3.4 conn=wye Kv=0.2200 Kva=75.0 %R=0.670
New Transformer.326521935_326721896 phases=3 windings=2 Xhl=3.770
~ wdg=1 bus=node_435450812.1.2.3 conn=delta Kv=34.5 Kva=75.0 %R=0.670
~ wdg=2 bus=node_418165714.1.2.3.4 conn=wye Kv=0.2200 Kva=75.0 %R=0.670
New Transformer.326522232_326721892 phases=3 windings=2 Xhl=3.770
~ wdg=1 bus=node_435451697.1.2.3 conn=delta Kv=34.5 Kva=75.0 %R=0.670
~ wdg=2 bus=node_418156866.1.2.3.4 conn=wye Kv=0.2200 Kva=75.0 %R=0.670
New Transformer.326522867_2545351322 phases=3 windings=2 Xhl=3.770
~ wdg=1 bus=node_442687595.1.2.3 conn=delta Kv=34.5 Kva=75.0 %R=0.670
~ wdg=2 bus=node_419449106.1.2.3.4 conn=wye Kv=0.2200 Kva=75.0 %R=0.670
New Transformer.2037911083_2037911082 phases=3 windings=2 Xhl=3.690
~ wdg=1 bus=node_2400994769.1.2.3 conn=delta Kv=34.5 Kva=75.0 %R=0.765
~ wdg=2 bus=node_2400994619.1.2.3.4 conn=wye Kv=0.2200 Kva=75.0 %R=0.765
New Transformer.1577418266_1599746878 phases=3 windings=2 Xhl=3.690
~ wdg=1 bus=node_1897192739.1.2.3 conn=delta Kv=34.5 Kva=75.0 %R=0.765
~ wdg=2 bus=node_1897192656.1.2.3.4 conn=wye Kv=0.2200 Kva=75.0 %R=0.765
New Transformer.1794669409_1794669423 phases=3 windings=2 Xhl=3.770
~ wdg=1 bus=node_2169768000.1.2.3 conn=delta Kv=34.5 Kva=75.0 %R=0.670
~ wdg=2 bus=node_2169767584.1.2.3.4 conn=wye Kv=0.2200 Kva=75.0 %R=0.670
New Transformer.1589832092_1589832091 phases=3 windings=2 Xhl=3.770
~ wdg=1 bus=node_1910327765.1.2.3 conn=delta Kv=34.5 Kva=75.0 %R=0.670
~ wdg=2 bus=node_1910327680.1.2.3.4 conn=wye Kv=0.2200 Kva=75.0 %R=0.670
New Transformer.1814086262_2187462636 phases=3 windings=2 Xhl=3.770
~ wdg=1 bus=node_2137557590.1.2.3 conn=delta Kv=34.5 Kva=75.0 %R=0.670
~ wdg=2 bus=node_2137557604.1.2.3.4 conn=wye Kv=0.2200 Kva=75.0 %R=0.670
New Transformer.1816546834_1816546833 phases=3 windings=2 Xhl=3.770
~ wdg=1 bus=node_2139850819.1.2.3 conn=delta Kv=34.5 Kva=75.0 %R=0.670
~ wdg=2 bus=node_2139850833.1.2.3.4 conn=wye Kv=0.2200 Kva=75.0 %R=0.670
New Transformer.326105024_326745710 phases=3 windings=2 Xhl=3.770
~ wdg=1 bus=node_442117317.1.2.3 conn=delta Kv=34.5 Kva=75.0 %R=0.670
~ wdg=2 bus=node_423145193.1.2.3.4 conn=wye Kv=0.2200 Kva=75.0 %R=0.670
New Transformer.326105031_2639697884 phases=3 windings=2 Xhl=3.770
~ wdg=1 bus=node_431966426.1.2.3 conn=delta Kv=34.5 Kva=75.0 %R=0.670
~ wdg=2 bus=node_419994632.1.2.3.4 conn=wye Kv=0.2200 Kva=75.0 %R=0.670
New Transformer.326104535_2297427409 phases=3 windings=2 Xhl=3.690
~ wdg=1 bus=node_431806721.1.2.3 conn=delta Kv=34.5 Kva=75.0 %R=0.765
~ wdg=2 bus=node_423635281.1.2.3.4 conn=wye Kv=0.2200 Kva=75.0 %R=0.765
New Transformer.326103949_2596200636 phases=3 windings=2 Xhl=3.770
~ wdg=1 bus=node_436692937.1.2.3 conn=delta Kv=34.5 Kva=75.0 %R=0.670
~ wdg=2 bus=node_423424053.1.2.3.4 conn=wye Kv=0.2200 Kva=75.0 %R=0.670
New Transformer.326103673_326724849 phases=3 windings=2 Xhl=3.770
~ wdg=1 bus=node_435925826.1.2.3 conn=delta Kv=34.5 Kva=75.0 %R=0.670
~ wdg=2 bus=node_423424071.1.2.3.4 conn=wye Kv=0.2200 Kva=75.0 %R=0.670
New Transformer.326104502_326725131 phases=3 windings=2 Xhl=3.690
~ wdg=1 bus=node_428597118.1.2.3 conn=delta Kv=34.5 Kva=75.0 %R=0.765
~ wdg=2 bus=node_423694511.1.2.3.4 conn=wye Kv=0.2200 Kva=75.0 %R=0.765
New Transformer.326106928_326704986 phases=3 windings=2 Xhl=3.770
~ wdg=1 bus=node_435767032.1.2.3 conn=delta Kv=34.5 Kva=75.0 %R=0.670
~ wdg=2 bus=node_423144206.1.2.3.4 conn=wye Kv=0.2200 Kva=75.0 %R=0.670
New Transformer.326106983_326706900 phases=3 windings=2 Xhl=3.690
~ wdg=1 bus=node_428597283.1.2.3 conn=delta Kv=34.5 Kva=75.0 %R=0.765
~ wdg=2 bus=node_423693482.1.2.3.4 conn=wye Kv=0.2200 Kva=75.0 %R=0.765
New Transformer.2549158428_2549158427 phases=3 windings=2 Xhl=3.770
~ wdg=1 bus=node_2959580110.1.2.3 conn=delta Kv=34.5 Kva=75.0 %R=0.670
~ wdg=2 bus=node_2959580100.1.2.3.4 conn=wye Kv=0.2200 Kva=75.0 %R=0.670
New Transformer.2294460430_2294460429 phases=3 windings=2 Xhl=3.770
~ wdg=1 bus=node_2516567674.1.2.3 conn=delta Kv=34.5 Kva=75.0 %R=0.670
~ wdg=2 bus=node_2516567736.1.2.3.4 conn=wye Kv=0.2200 Kva=75.0 %R=0.670
New Transformer.2717277926_2717277933 phases=3 windings=2 Xhl=3.770
~ wdg=1 bus=node_2906841376.1.2.3 conn=delta Kv=34.5 Kva=75.0 %R=0.670
~ wdg=2 bus=node_2906841303.1.2.3.4 conn=wye Kv=0.2200 Kva=75.0 %R=0.670
New Transformer.2583008526_2583008525 phases=3 windings=2 Xhl=3.770
~ wdg=1 bus=node_2735611794.1.2.3 conn=delta Kv=34.5 Kva=75.0 %R=0.670
~ wdg=2 bus=node_2735611800.1.2.3.4 conn=wye Kv=0.2200 Kva=75.0 %R=0.670
New Transformer.2514892969_2514892968 phases=3 windings=2 Xhl=3.770
~ wdg=1 bus=node_2669760618.1.2.3 conn=delta Kv=34.5 Kva=75.0 %R=0.670
~ wdg=2 bus=node_2669760632.1.2.3.4 conn=wye Kv=0.2200 Kva=75.0 %R=0.670
New Transformer.2574772734_2574772739 phases=3 windings=2 Xhl=3.690
~ wdg=1 bus=node_2733771070.1.2.3 conn=delta Kv=34.5 Kva=75.0 %R=0.765
~ wdg=2 bus=node_2733771037.1.2.3.4 conn=wye Kv=0.2200 Kva=75.0 %R=0.765
New Transformer.2560804643_2560804642 phases=3 windings=2 Xhl=3.770
~ wdg=1 bus=node_2697899915.1.2.3 conn=delta Kv=34.5 Kva=75.0 %R=0.670
~ wdg=2 bus=node_2697899907.1.2.3.4 conn=wye Kv=0.2200 Kva=75.0 %R=0.670
New Transformer.2563734044_2563734043 phases=3 windings=2 Xhl=3.770
~ wdg=1 bus=node_2701358033.1.2.3 conn=delta Kv=34.5 Kva=75.0 %R=0.670
~ wdg=2 bus=node_2701358249.1.2.3.4 conn=wye Kv=0.2200 Kva=75.0 %R=0.670
New Transformer.2611577577_2611577576 phases=3 windings=2 Xhl=4.960
~ wdg=1 bus=node_2765290656.1.2.3 conn=delta Kv=34.5 Kva=75.0 %R=0.305
~ wdg=2 bus=node_2765290540.1.2.3.4 conn=wye Kv=0.2200 Kva=75.0 %R=0.305
New Transformer.2586724928_2586724927 phases=3 windings=2 Xhl=3.770
~ wdg=1 bus=node_2739540470.1.2.3 conn=delta Kv=34.5 Kva=75.0 %R=0.670
~ wdg=2 bus=node_2739540561.1.2.3.4 conn=wye Kv=0.2200 Kva=75.0 %R=0.670
New Transformer.326382843_326723168 phases=3 windings=2 Xhl=3.700
~ wdg=1 bus=node_435451807.1.2.3 conn=delta Kv=34.5 Kva=45.0 %R=0.760
~ wdg=2 bus=node_418157715.1.2.3.4 conn=wye Kv=0.2200 Kva=45.0 %R=0.760
New Transformer.326382647_326724877 phases=3 windings=2 Xhl=3.700
~ wdg=1 bus=node_442387185.1.2.3 conn=delta Kv=34.5 Kva=45.0 %R=0.760
~ wdg=2 bus=node_423392300.1.2.3.4 conn=wye Kv=0.2200 Kva=45.0 %R=0.760
New Transformer.326383404_326765021 phases=3 windings=2 Xhl=3.620
~ wdg=1 bus=node_436380756.1.2.3 conn=delta Kv=34.5 Kva=45.0 %R=0.855
~ wdg=2 bus=node_419992589.1.2.3.4 conn=wye Kv=0.2200 Kva=45.0 %R=0.855
New Transformer.326383402_326705912 phases=3 windings=2 Xhl=3.620
~ wdg=1 bus=node_442540865.1.2.3 conn=delta Kv=34.5 Kva=45.0 %R=0.855
~ wdg=2 bus=node_423626196.1.2.3.4 conn=wye Kv=0.2200 Kva=45.0 %R=0.855
New Transformer.326383982_1521639016 phases=3 windings=2 Xhl=3.700
~ wdg=1 bus=node_442689220.1.2.3 conn=delta Kv=34.5 Kva=45.0 %R=0.760
~ wdg=2 bus=node_423144251.1.2.3.4 conn=wye Kv=0.2200 Kva=45.0 %R=0.760
New Transformer.326383851_326724400 phases=3 windings=2 Xhl=3.700
~ wdg=1 bus=node_442808493.1.2.3 conn=delta Kv=34.5 Kva=45.0 %R=0.760
~ wdg=2 bus=node_419447225.1.2.3.4 conn=wye Kv=0.2200 Kva=45.0 %R=0.760
New Transformer.326384172_326787663 phases=3 windings=2 Xhl=3.620
~ wdg=1 bus=node_436381121.1.2.3 conn=delta Kv=34.5 Kva=45.0 %R=0.855
~ wdg=2 bus=node_419992400.1.2.3.4 conn=wye Kv=0.2200 Kva=45.0 %R=0.855
New Transformer.326384325_326768772 phases=3 windings=2 Xhl=3.700
~ wdg=1 bus=node_442541065.1.2.3 conn=delta Kv=34.5 Kva=45.0 %R=0.760
~ wdg=2 bus=node_423355791.1.2.3.4 conn=wye Kv=0.2200 Kva=45.0 %R=0.760
New Transformer.326384297_326704990 phases=3 windings=2 Xhl=3.700
~ wdg=1 bus=node_442117362.1.2.3 conn=delta Kv=34.5 Kva=45.0 %R=0.760
~ wdg=2 bus=node_423146711.1.2.3.4 conn=wye Kv=0.2200 Kva=45.0 %R=0.760
New Transformer.326384052_326765022 phases=3 windings=2 Xhl=3.620
~ wdg=1 bus=node_436379686.1.2.3 conn=delta Kv=34.5 Kva=45.0 %R=0.855
~ wdg=2 bus=node_419992580.1.2.3.4 conn=wye Kv=0.2200 Kva=45.0 %R=0.855
New Transformer.326384427_326721887 phases=3 windings=2 Xhl=3.700
~ wdg=1 bus=node_442540050.1.2.3 conn=delta Kv=34.5 Kva=45.0 %R=0.760
~ wdg=2 bus=node_423161546.1.2.3.4 conn=wye Kv=0.2200 Kva=45.0 %R=0.760
New Transformer.326384577_1902216236 phases=3 windings=2 Xhl=3.700
~ wdg=1 bus=node_441972260.1.2.3 conn=delta Kv=34.5 Kva=45.0 %R=0.760
~ wdg=2 bus=node_423143981.1.2.3.4 conn=wye Kv=0.2200 Kva=45.0 %R=0.760
New Transformer.326384637_326724772 phases=3 windings=2 Xhl=3.700
~ wdg=1 bus=node_427618891.1.2.3 conn=delta Kv=34.5 Kva=45.0 %R=0.760
~ wdg=2 bus=node_418615780.1.2.3.4 conn=wye Kv=0.2200 Kva=45.0 %R=0.760
New Transformer.326384686_326766962 phases=3 windings=2 Xhl=3.700
~ wdg=1 bus=node_429568435.1.2.3 conn=delta Kv=34.5 Kva=45.0 %R=0.760
~ wdg=2 bus=node_418162789.1.2.3.4 conn=wye Kv=0.2200 Kva=45.0 %R=0.760
New Transformer.326384725_326725549 phases=3 windings=2 Xhl=3.620
~ wdg=1 bus=node_428433338.1.2.3 conn=delta Kv=34.5 Kva=45.0 %R=0.855
~ wdg=2 bus=node_423650537.1.2.3.4 conn=wye Kv=0.2200 Kva=45.0 %R=0.855
New Transformer.326385381_2753098466 phases=3 windings=2 Xhl=3.620
~ wdg=1 bus=node_436379132.1.2.3 conn=delta Kv=34.5 Kva=45.0 %R=0.855
~ wdg=2 bus=node_419992406.1.2.3.4 conn=wye Kv=0.2200 Kva=45.0 %R=0.855
New Transformer.326385405_326765485 phases=3 windings=2 Xhl=3.620
~ wdg=1 bus=node_444601270.1.2.3 conn=delta Kv=34.5 Kva=45.0 %R=0.855
~ wdg=2 bus=node_423618794.1.2.3.4 conn=wye Kv=0.2200 Kva=45.0 %R=0.855
New Transformer.326385369_326724886 phases=3 windings=2 Xhl=3.700
~ wdg=1 bus=node_431807996.1.2.3 conn=delta Kv=34.5 Kva=45.0 %R=0.760
~ wdg=2 bus=node_423423687.1.2.3.4 conn=wye Kv=0.2200 Kva=45.0 %R=0.760
New Transformer.326385372_326767837 phases=3 windings=2 Xhl=3.700
~ wdg=1 bus=node_435451712.1.2.3 conn=delta Kv=34.5 Kva=45.0 %R=0.760
~ wdg=2 bus=node_475924085.1.2.3.4 conn=wye Kv=0.2200 Kva=45.0 %R=0.760
New Transformer.326385659_326721886 phases=3 windings=2 Xhl=3.700
~ wdg=1 bus=node_442388530.1.2.3 conn=delta Kv=34.5 Kva=45.0 %R=0.760
~ wdg=2 bus=node_423146591.1.2.3.4 conn=wye Kv=0.2200 Kva=45.0 %R=0.760
New Transformer.326386006_326766964 phases=3 windings=2 Xhl=3.700
~ wdg=1 bus=node_435450788.1.2.3 conn=delta Kv=34.5 Kva=45.0 %R=0.760
~ wdg=2 bus=node_418165720.1.2.3.4 conn=wye Kv=0.2200 Kva=45.0 %R=0.760
New Transformer.326386825_1964655290 phases=3 windings=2 Xhl=3.700
~ wdg=1 bus=node_442809188.1.2.3 conn=delta Kv=34.5 Kva=45.0 %R=0.760
~ wdg=2 bus=node_423143996.1.2.3.4 conn=wye Kv=0.2200 Kva=45.0 %R=0.760
New Transformer.325953736_421911264 phases=3 windings=2 Xhl=3.620
~ wdg=1 bus=node_426295706.1.2.3 conn=delta Kv=34.5 Kva=45.0 %R=0.855
~ wdg=2 bus=node_423683855.1.2.3.4 conn=wye Kv=0.2200 Kva=45.0 %R=0.855
New Transformer.325953747_326744325 phases=3 windings=2 Xhl=3.700
~ wdg=1 bus=node_1115813112.1.2.3 conn=delta Kv=34.5 Kva=45.0 %R=0.760
~ wdg=2 bus=node_461007211.1.2.3.4 conn=wye Kv=0.2200 Kva=45.0 %R=0.760
New Transformer.325953860_326705756 phases=3 windings=2 Xhl=3.620
~ wdg=1 bus=node_436379596.1.2.3 conn=delta Kv=34.5 Kva=45.0 %R=0.855
~ wdg=2 bus=node_419992838.1.2.3.4 conn=wye Kv=0.2200 Kva=45.0 %R=0.855
New Transformer.325953933_326768920 phases=3 windings=2 Xhl=3.700
~ wdg=1 bus=node_435451032.1.2.3 conn=delta Kv=34.5 Kva=45.0 %R=0.760
~ wdg=2 bus=node_418355626.1.2.3.4 conn=wye Kv=0.2200 Kva=45.0 %R=0.760
New Transformer.325954158_326789545 phases=3 windings=2 Xhl=3.700
~ wdg=1 bus=node_429568471.1.2.3 conn=delta Kv=34.5 Kva=45.0 %R=0.760
~ wdg=2 bus=node_418163134.1.2.3.4 conn=wye Kv=0.2200 Kva=45.0 %R=0.760
New Transformer.325954219_326746520 phases=3 windings=2 Xhl=3.700
~ wdg=1 bus=node_429570106.1.2.3 conn=delta Kv=34.5 Kva=45.0 %R=0.760
~ wdg=2 bus=node_418165717.1.2.3.4 conn=wye Kv=0.2200 Kva=45.0 %R=0.760
New Transformer.325954399_326788531 phases=3 windings=2 Xhl=3.700
~ wdg=1 bus=node_428433313.1.2.3 conn=delta Kv=34.5 Kva=45.0 %R=0.760
~ wdg=2 bus=node_423399093.1.2.3.4 conn=wye Kv=0.2200 Kva=45.0 %R=0.760
New Transformer.325954512_326788773 phases=3 windings=2 Xhl=3.700
~ wdg=1 bus=node_427619000.1.2.3 conn=delta Kv=34.5 Kva=45.0 %R=0.760
~ wdg=2 bus=node_418354675.1.2.3.4 conn=wye Kv=0.2200 Kva=45.0 %R=0.760
New Transformer.325954877_326707123 phases=3 windings=2 Xhl=3.620
~ wdg=1 bus=node_436078226.1.2.3 conn=delta Kv=34.5 Kva=45.0 %R=0.855
~ wdg=2 bus=node_419992193.1.2.3.4 conn=wye Kv=0.2200 Kva=45.0 %R=0.855
New Transformer.325955228_326723786 phases=3 windings=2 Xhl=3.700
~ wdg=1 bus=node_425216615.1.2.3 conn=delta Kv=34.5 Kva=45.0 %R=0.760
~ wdg=2 bus=node_419961331.1.2.3.4 conn=wye Kv=0.2200 Kva=45.0 %R=0.760
New Transformer.325955225_326746731 phases=3 windings=2 Xhl=3.620
~ wdg=1 bus=node_442388730.1.2.3 conn=delta Kv=34.5 Kva=45.0 %R=0.855
~ wdg=2 bus=node_419516881.1.2.3.4 conn=wye Kv=0.2200 Kva=45.0 %R=0.855
New Transformer.325955446_1129532530 phases=3 windings=2 Xhl=3.620
~ wdg=1 bus=node_442540215.1.2.3 conn=delta Kv=34.5 Kva=45.0 %R=0.855
~ wdg=2 bus=node_419385604.1.2.3.4 conn=wye Kv=0.2200 Kva=45.0 %R=0.855
New Transformer.325955809_326746521 phases=3 windings=2 Xhl=3.700
~ wdg=1 bus=node_435451846.1.2.3 conn=delta Kv=34.5 Kva=45.0 %R=0.760
~ wdg=2 bus=node_418492722.1.2.3.4 conn=wye Kv=0.2200 Kva=45.0 %R=0.760
New Transformer.325955727_957385949 phases=3 windings=2 Xhl=3.620
~ wdg=1 bus=node_428432010.1.2.3 conn=delta Kv=34.5 Kva=45.0 %R=0.855
~ wdg=2 bus=node_419958442.1.2.3.4 conn=wye Kv=0.2200 Kva=45.0 %R=0.855
New Transformer.325955956_326788455 phases=3 windings=2 Xhl=3.700
~ wdg=1 bus=node_427619051.1.2.3 conn=delta Kv=34.5 Kva=45.0 %R=0.760
~ wdg=2 bus=node_418676749.1.2.3.4 conn=wye Kv=0.2200 Kva=45.0 %R=0.760
New Transformer.325956119_326767829 phases=3 windings=2 Xhl=3.700
~ wdg=1 bus=node_435450892.1.2.3 conn=delta Kv=34.5 Kva=45.0 %R=0.760
~ wdg=2 bus=node_419925927.1.2.3.4 conn=wye Kv=0.2200 Kva=45.0 %R=0.760
New Transformer.325956158_326765892 phases=3 windings=2 Xhl=3.700
~ wdg=1 bus=node_427619066.1.2.3 conn=delta Kv=34.5 Kva=45.0 %R=0.760
~ wdg=2 bus=node_418615000.1.2.3.4 conn=wye Kv=0.2200 Kva=45.0 %R=0.760
New Transformer.325956376_326766961 phases=3 windings=2 Xhl=3.700
~ wdg=1 bus=node_442941338.1.2.3 conn=delta Kv=34.5 Kva=45.0 %R=0.760
~ wdg=2 bus=node_423134229.1.2.3.4 conn=wye Kv=0.2200 Kva=45.0 %R=0.760
New Transformer.325956466_326705618 phases=3 windings=2 Xhl=3.620
~ wdg=1 bus=node_429568156.1.2.3 conn=delta Kv=34.5 Kva=45.0 %R=0.855
~ wdg=2 bus=node_419961361.1.2.3.4 conn=wye Kv=0.2200 Kva=45.0 %R=0.855
New Transformer.325956838_326745673 phases=3 windings=2 Xhl=3.700
~ wdg=1 bus=node_435450833.1.2.3 conn=delta Kv=34.5 Kva=45.0 %R=0.760
~ wdg=2 bus=node_418162777.1.2.3.4 conn=wye Kv=0.2200 Kva=45.0 %R=0.760
New Transformer.325957003_1432083833 phases=3 windings=2 Xhl=3.620
~ wdg=1 bus=node_435765243.1.2.3 conn=delta Kv=34.5 Kva=45.0 %R=0.855
~ wdg=2 bus=node_419924130.1.2.3.4 conn=wye Kv=0.2200 Kva=45.0 %R=0.855
New Transformer.325957526_326744432 phases=3 windings=2 Xhl=3.700
~ wdg=1 bus=node_442116812.1.2.3 conn=delta Kv=34.5 Kva=45.0 %R=0.760
~ wdg=2 bus=node_423164789.1.2.3.4 conn=wye Kv=0.2200 Kva=45.0 %R=0.760
New Transformer.325957450_326765070 phases=3 windings=2 Xhl=3.620
~ wdg=1 bus=node_436378487.1.2.3 conn=delta Kv=34.5 Kva=45.0 %R=0.855
~ wdg=2 bus=node_423635278.1.2.3.4 conn=wye Kv=0.2200 Kva=45.0 %R=0.855
New Transformer.325957451_326725712 phases=3 windings=2 Xhl=3.620
~ wdg=1 bus=node_428432958.1.2.3 conn=delta Kv=34.5 Kva=45.0 %R=0.855
~ wdg=2 bus=node_419681515.1.2.3.4 conn=wye Kv=0.2200 Kva=45.0 %R=0.855
New Transformer.325523783_326721894 phases=3 windings=2 Xhl=3.700
~ wdg=1 bus=node_435450877.1.2.3 conn=delta Kv=34.5 Kva=45.0 %R=0.760
~ wdg=2 bus=node_418157697.1.2.3.4 conn=wye Kv=0.2200 Kva=45.0 %R=0.760
New Transformer.326254216_808418498 phases=3 windings=2 Xhl=3.620
~ wdg=1 bus=node_428597153.1.2.3 conn=delta Kv=34.5 Kva=45.0 %R=0.855
~ wdg=2 bus=node_420030745.1.2.3.4 conn=wye Kv=0.2200 Kva=45.0 %R=0.855
New Transformer.326255588_326704964 phases=3 windings=2 Xhl=3.700
~ wdg=1 bus=node_429569555.1.2.3 conn=delta Kv=34.5 Kva=45.0 %R=0.760
~ wdg=2 bus=node_418163074.1.2.3.4 conn=wye Kv=0.2200 Kva=45.0 %R=0.760
New Transformer.326255817_326707576 phases=3 windings=2 Xhl=3.620
~ wdg=1 bus=node_442388750.1.2.3 conn=delta Kv=34.5 Kva=45.0 %R=0.855
~ wdg=2 bus=node_419414236.1.2.3.4 conn=wye Kv=0.2200 Kva=45.0 %R=0.855
New Transformer.326256278_326708244 phases=3 windings=2 Xhl=3.700
~ wdg=1 bus=node_427620066.1.2.3 conn=delta Kv=34.5 Kva=45.0 %R=0.760
~ wdg=2 bus=node_418355803.1.2.3.4 conn=wye Kv=0.2200 Kva=45.0 %R=0.760
New Transformer.326256607_2752647499 phases=3 windings=2 Xhl=4.960
~ wdg=1 bus=node_431502578.1.2.3 conn=delta Kv=34.5 Kva=45.0 %R=0.305
~ wdg=2 bus=node_419617410.1.2.3.4 conn=wye Kv=0.2200 Kva=45.0 %R=0.305
New Transformer.326256364_326706756 phases=3 windings=2 Xhl=3.620
~ wdg=1 bus=node_436693147.1.2.3 conn=delta Kv=34.5 Kva=45.0 %R=0.855
~ wdg=2 bus=node_420107362.1.2.3.4 conn=wye Kv=0.2200 Kva=45.0 %R=0.855
New Transformer.326254926_326747182 phases=3 windings=2 Xhl=3.620
~ wdg=1 bus=node_442686127.1.2.3 conn=delta Kv=34.5 Kva=45.0 %R=0.855
~ wdg=2 bus=node_419083524.1.2.3.4 conn=wye Kv=0.2200 Kva=45.0 %R=0.855
New Transformer.326254897_326746479 phases=3 windings=2 Xhl=3.620
~ wdg=1 bus=node_436379192.1.2.3 conn=delta Kv=34.5 Kva=45.0 %R=0.855
~ wdg=2 bus=node_419992586.1.2.3.4 conn=wye Kv=0.2200 Kva=45.0 %R=0.855
New Transformer.326255139_326725073 phases=3 windings=2 Xhl=3.700
~ wdg=1 bus=node_425216645.1.2.3 conn=delta Kv=34.5 Kva=45.0 %R=0.760
~ wdg=2 bus=node_420063985.1.2.3.4 conn=wye Kv=0.2200 Kva=45.0 %R=0.760
New Transformer.326255166_326706127 phases=3 windings=2 Xhl=3.620
~ wdg=1 bus=node_436380596.1.2.3 conn=delta Kv=34.5 Kva=45.0 %R=0.855
~ wdg=2 bus=node_419992595.1.2.3.4 conn=wye Kv=0.2200 Kva=45.0 %R=0.855
New Transformer.326256464_326744924 phases=3 windings=2 Xhl=3.700
~ wdg=1 bus=node_427619151.1.2.3 conn=delta Kv=34.5 Kva=45.0 %R=0.760
~ wdg=2 bus=node_418355668.1.2.3.4 conn=wye Kv=0.2200 Kva=45.0 %R=0.760
New Transformer.326256116_326789546 phases=3 windings=2 Xhl=3.700
~ wdg=1 bus=node_435451367.1.2.3 conn=delta Kv=34.5 Kva=45.0 %R=0.760
~ wdg=2 bus=node_418162801.1.2.3.4 conn=wye Kv=0.2200 Kva=45.0 %R=0.760
New Transformer.326255303_326788178 phases=3 windings=2 Xhl=3.700
~ wdg=1 bus=node_442807533.1.2.3 conn=delta Kv=34.5 Kva=45.0 %R=0.760
~ wdg=2 bus=node_419385904.1.2.3.4 conn=wye Kv=0.2200 Kva=45.0 %R=0.760
New Transformer.326256806_967451086 phases=3 windings=2 Xhl=3.700
~ wdg=1 bus=node_441971835.1.2.3 conn=delta Kv=34.5 Kva=45.0 %R=0.760
~ wdg=2 bus=node_423144245.1.2.3.4 conn=wye Kv=0.2200 Kva=45.0 %R=0.760
New Transformer.326257167_480678948 phases=3 windings=2 Xhl=3.620
~ wdg=1 bus=node_431965102.1.2.3 conn=delta Kv=34.5 Kva=45.0 %R=0.855
~ wdg=2 bus=node_420104710.1.2.3.4 conn=wye Kv=0.2200 Kva=45.0 %R=0.855
New Transformer.874782309_874782310 phases=3 windings=2 Xhl=3.700
~ wdg=1 bus=node_1141448337.1.2.3 conn=delta Kv=34.5 Kva=45.0 %R=0.760
~ wdg=2 bus=node_1141448258.1.2.3.4 conn=wye Kv=0.2200 Kva=45.0 %R=0.760
New Transformer.326257592_326787694 phases=3 windings=2 Xhl=3.700
~ wdg=1 bus=node_435451836.1.2.3 conn=delta Kv=34.5 Kva=45.0 %R=0.760
~ wdg=2 bus=node_418676971.1.2.3.4 conn=wye Kv=0.2200 Kva=45.0 %R=0.760
New Transformer.916189332_916189331 phases=3 windings=2 Xhl=3.700
~ wdg=1 bus=node_1176800830.1.2.3 conn=delta Kv=34.5 Kva=45.0 %R=0.760
~ wdg=2 bus=node_1176800816.1.2.3.4 conn=wye Kv=0.2200 Kva=45.0 %R=0.760
New Transformer.1307136602_1307136601 phases=3 windings=2 Xhl=3.620
~ wdg=1 bus=node_1605625405.1.2.3 conn=delta Kv=34.5 Kva=45.0 %R=0.855
~ wdg=2 bus=node_1605625373.1.2.3.4 conn=wye Kv=0.2200 Kva=45.0 %R=0.855
New Transformer.473271883_473271882 phases=3 windings=2 Xhl=3.700
~ wdg=1 bus=node_743102519.1.2.3 conn=delta Kv=34.5 Kva=45.0 %R=0.760
~ wdg=2 bus=node_743102574.1.2.3.4 conn=wye Kv=0.2200 Kva=45.0 %R=0.760
New Transformer.1320063027_1578874804 phases=3 windings=2 Xhl=3.700
~ wdg=1 bus=node_1617237782.1.2.3 conn=delta Kv=34.5 Kva=45.0 %R=0.760
~ wdg=2 bus=node_1617239571.1.2.3.4 conn=wye Kv=0.2200 Kva=45.0 %R=0.760
New Transformer.1320063413_1578874943 phases=3 windings=2 Xhl=3.700
~ wdg=1 bus=node_1617238090.1.2.3 conn=delta Kv=34.5 Kva=45.0 %R=0.760
~ wdg=2 bus=node_1617238869.1.2.3.4 conn=wye Kv=0.2200 Kva=45.0 %R=0.760
New Transformer.1320063531_1578875058 phases=3 windings=2 Xhl=3.700
~ wdg=1 bus=node_1617237620.1.2.3 conn=delta Kv=34.5 Kva=45.0 %R=0.760
~ wdg=2 bus=node_1617240286.1.2.3.4 conn=wye Kv=0.2200 Kva=45.0 %R=0.760
New Transformer.506344210_506344209 phases=3 windings=2 Xhl=3.700
~ wdg=1 bus=node_435451972.1.2.3 conn=delta Kv=34.5 Kva=45.0 %R=0.760
~ wdg=2 bus=node_1050763311.1.2.3.4 conn=wye Kv=0.2200 Kva=45.0 %R=0.760
New Transformer.326520121_326765722 phases=3 windings=2 Xhl=3.620
~ wdg=1 bus=node_427450165.1.2.3 conn=delta Kv=34.5 Kva=45.0 %R=0.855
~ wdg=2 bus=node_419081757.1.2.3.4 conn=wye Kv=0.2200 Kva=45.0 %R=0.855
New Transformer.326520177_326723161 phases=3 windings=2 Xhl=3.700
~ wdg=1 bus=node_442808273.1.2.3 conn=delta Kv=34.5 Kva=45.0 %R=0.760
~ wdg=2 bus=node_423131463.1.2.3.4 conn=wye Kv=0.2200 Kva=45.0 %R=0.760
New Transformer.326520778_326724046 phases=3 windings=2 Xhl=3.620
~ wdg=1 bus=node_432138137.1.2.3 conn=delta Kv=34.5 Kva=45.0 %R=0.855
~ wdg=2 bus=node_419814298.1.2.3.4 conn=wye Kv=0.2200 Kva=45.0 %R=0.855
New Transformer.326521260_1442225916 phases=3 windings=2 Xhl=3.620
~ wdg=1 bus=node_427950194.1.2.3 conn=delta Kv=34.5 Kva=45.0 %R=0.855
~ wdg=2 bus=node_419961403.1.2.3.4 conn=wye Kv=0.2200 Kva=45.0 %R=0.855
New Transformer.326521603_326744343 phases=3 windings=2 Xhl=3.700
~ wdg=1 bus=node_442542330.1.2.3 conn=delta Kv=34.5 Kva=45.0 %R=0.760
~ wdg=2 bus=node_423146714.1.2.3.4 conn=wye Kv=0.2200 Kva=45.0 %R=0.760
New Transformer.326522047_326746275 phases=3 windings=2 Xhl=3.620
~ wdg=1 bus=node_431346040.1.2.3 conn=delta Kv=34.5 Kva=45.0 %R=0.855
~ wdg=2 bus=node_419993390.1.2.3.4 conn=wye Kv=0.2200 Kva=45.0 %R=0.855
New Transformer.326521707_585212084 phases=3 windings=2 Xhl=3.620
~ wdg=1 bus=node_442940218.1.2.3 conn=delta Kv=34.5 Kva=45.0 %R=0.855
~ wdg=2 bus=node_419316365.1.2.3.4 conn=wye Kv=0.2200 Kva=45.0 %R=0.855
New Transformer.1539575424_2650102259 phases=3 windings=2 Xhl=3.620
~ wdg=1 bus=node_1858581213.1.2.3 conn=delta Kv=34.5 Kva=45.0 %R=0.855
~ wdg=2 bus=node_1858580949.1.2.3.4 conn=wye Kv=0.2200 Kva=45.0 %R=0.855
New Transformer.326522119_326725307 phases=3 windings=2 Xhl=3.620
~ wdg=1 bus=node_436379681.1.2.3 conn=delta Kv=34.5 Kva=45.0 %R=0.855
~ wdg=2 bus=node_419992574.1.2.3.4 conn=wye Kv=0.2200 Kva=45.0 %R=0.855
New Transformer.326522528_326705070 phases=3 windings=2 Xhl=3.700
~ wdg=1 bus=node_442685942.1.2.3 conn=delta Kv=34.5 Kva=45.0 %R=0.760
~ wdg=2 bus=node_418156062.1.2.3.4 conn=wye Kv=0.2200 Kva=45.0 %R=0.760
New Transformer.326522307_539639864 phases=3 windings=2 Xhl=3.620
~ wdg=1 bus=node_431966046.1.2.3 conn=delta Kv=34.5 Kva=45.0 %R=0.855
~ wdg=2 bus=node_419681752.1.2.3.4 conn=wye Kv=0.2200 Kva=45.0 %R=0.855
New Transformer.326522624_326788593 phases=3 windings=2 Xhl=3.700
~ wdg=1 bus=node_442688815.1.2.3 conn=delta Kv=34.5 Kva=45.0 %R=0.760
~ wdg=2 bus=node_423381811.1.2.3.4 conn=wye Kv=0.2200 Kva=45.0 %R=0.760
New Transformer.326522845_2593915753 phases=3 windings=2 Xhl=3.620
~ wdg=1 bus=node_429569486.1.2.3 conn=delta Kv=34.5 Kva=45.0 %R=0.855
~ wdg=2 bus=node_420030760.1.2.3.4 conn=wye Kv=0.2200 Kva=45.0 %R=0.855
New Transformer.326523190_326746946 phases=3 windings=2 Xhl=3.700
~ wdg=1 bus=node_441971090.1.2.3 conn=delta Kv=34.5 Kva=45.0 %R=0.760
~ wdg=2 bus=node_423608371.1.2.3.4 conn=wye Kv=0.2200 Kva=45.0 %R=0.760
New Transformer.326523569_2705770851 phases=3 windings=2 Xhl=4.960
~ wdg=1 bus=node_429567821.1.2.3 conn=delta Kv=34.5 Kva=45.0 %R=0.305
~ wdg=2 bus=node_419924136.1.2.3.4 conn=wye Kv=0.2200 Kva=45.0 %R=0.305
New Transformer.326523388_326788310 phases=3 windings=2 Xhl=3.700
~ wdg=1 bus=node_442940233.1.2.3 conn=delta Kv=34.5 Kva=45.0 %R=0.760
~ wdg=2 bus=node_419082411.1.2.3.4 conn=wye Kv=0.2200 Kva=45.0 %R=0.760
New Transformer.326105015_326766966 phases=3 windings=2 Xhl=3.700
~ wdg=1 bus=node_435451342.1.2.3 conn=delta Kv=34.5 Kva=45.0 %R=0.760
~ wdg=2 bus=node_418165408.1.2.3.4 conn=wye Kv=0.2200 Kva=45.0 %R=0.760
New Transformer.326104880_326764940 phases=3 windings=2 Xhl=3.620
~ wdg=1 bus=node_428432204.1.2.3 conn=delta Kv=34.5 Kva=45.0 %R=0.855
~ wdg=2 bus=node_423695510.1.2.3.4 conn=wye Kv=0.2200 Kva=45.0 %R=0.855
New Transformer.326103990_1871209262 phases=3 windings=2 Xhl=3.700
~ wdg=1 bus=node_435451652.1.2.3 conn=delta Kv=34.5 Kva=45.0 %R=0.760
~ wdg=2 bus=node_418157166.1.2.3.4 conn=wye Kv=0.2200 Kva=45.0 %R=0.760
New Transformer.326104216_326723834 phases=3 windings=2 Xhl=3.620
~ wdg=1 bus=node_429568146.1.2.3 conn=delta Kv=34.5 Kva=45.0 %R=0.855
~ wdg=2 bus=node_419992844.1.2.3.4 conn=wye Kv=0.2200 Kva=45.0 %R=0.855
New Transformer.326105976_326744812 phases=3 windings=2 Xhl=3.700
~ wdg=1 bus=node_439372364.1.2.3 conn=delta Kv=34.5 Kva=45.0 %R=0.760
~ wdg=2 bus=node_423355251.1.2.3.4 conn=wye Kv=0.2200 Kva=45.0 %R=0.760
New Transformer.326105915_326789568 phases=3 windings=2 Xhl=3.700
~ wdg=1 bus=node_442686946.1.2.3 conn=delta Kv=34.5 Kva=45.0 %R=0.760
~ wdg=2 bus=node_418156023.1.2.3.4 conn=wye Kv=0.2200 Kva=45.0 %R=0.760
New Transformer.326105751_326789548 phases=3 windings=2 Xhl=3.700
~ wdg=1 bus=node_439372704.1.2.3 conn=delta Kv=34.5 Kva=45.0 %R=0.760
~ wdg=2 bus=node_423134226.1.2.3.4 conn=wye Kv=0.2200 Kva=45.0 %R=0.760
New Transformer.326106452_326721893 phases=3 windings=2 Xhl=3.700
~ wdg=1 bus=node_435451001.1.2.3 conn=delta Kv=34.5 Kva=45.0 %R=0.760
~ wdg=2 bus=node_418163140.1.2.3.4 conn=wye Kv=0.2200 Kva=45.0 %R=0.760
New Transformer.326105903_326746494 phases=3 windings=2 Xhl=3.620
~ wdg=1 bus=node_436534980.1.2.3 conn=delta Kv=34.5 Kva=45.0 %R=0.855
~ wdg=2 bus=node_423691448.1.2.3.4 conn=wye Kv=0.2200 Kva=45.0 %R=0.855
New Transformer.326105658_1561165577 phases=3 windings=2 Xhl=3.620
~ wdg=1 bus=node_428433777.1.2.3 conn=delta Kv=34.5 Kva=45.0 %R=0.855
~ wdg=2 bus=node_419681746.1.2.3.4 conn=wye Kv=0.2200 Kva=45.0 %R=0.855
New Transformer.326106249_326747361 phases=3 windings=2 Xhl=3.700
~ wdg=1 bus=node_428597038.1.2.3 conn=delta Kv=34.5 Kva=45.0 %R=0.760
~ wdg=2 bus=node_423625428.1.2.3.4 conn=wye Kv=0.2200 Kva=45.0 %R=0.760
New Transformer.326106019_326724418 phases=3 windings=2 Xhl=3.700
~ wdg=1 bus=node_442808448.1.2.3 conn=delta Kv=34.5 Kva=45.0 %R=0.760
~ wdg=2 bus=node_419517448.1.2.3.4 conn=wye Kv=0.2200 Kva=45.0 %R=0.760
New Transformer.326105825_326744335 phases=3 windings=2 Xhl=3.700
~ wdg=1 bus=node_442254881.1.2.3 conn=delta Kv=34.5 Kva=45.0 %R=0.760
~ wdg=2 bus=node_423133683.1.2.3.4 conn=wye Kv=0.2200 Kva=45.0 %R=0.760
New Transformer.326107551_326723733 phases=3 windings=2 Xhl=3.700
~ wdg=1 bus=node_425216713.1.2.3 conn=delta Kv=34.5 Kva=45.0 %R=0.760
~ wdg=2 bus=node_420062125.1.2.3.4 conn=wye Kv=0.2200 Kva=45.0 %R=0.760
New Transformer.2575100565_2575100564 phases=3 windings=2 Xhl=3.700
~ wdg=1 bus=node_2727105579.1.2.3 conn=delta Kv=34.5 Kva=45.0 %R=0.760
~ wdg=2 bus=node_2727105584.1.2.3.4 conn=wye Kv=0.2200 Kva=45.0 %R=0.760
New Transformer.2392586855_2392586859 phases=3 windings=2 Xhl=3.620
~ wdg=1 bus=node_2477703277.1.2.3 conn=delta Kv=34.5 Kva=45.0 %R=0.855
~ wdg=2 bus=node_2477703124.1.2.3.4 conn=wye Kv=0.2200 Kva=45.0 %R=0.855
New Transformer.2623359339_2623359338 phases=3 windings=2 Xhl=3.700
~ wdg=1 bus=node_2778265444.1.2.3 conn=delta Kv=34.5 Kva=45.0 %R=0.760
~ wdg=2 bus=node_2778266404.1.2.3.4 conn=wye Kv=0.2200 Kva=45.0 %R=0.760
New Transformer.2398259146_2398259147 phases=1 windings=3 Xhl=2.139 Xht=2.139 Xlt=1.069
~ wdg=1 bus=node_2518367388.1 conn=wye Kv=19.9186 Kva=37.5 %R=0.646
~ wdg=2 bus=node_461842594.1.4 conn=wye Kv=0.1200 Kva=37.5 %R=0.646
~ wdg=3 bus=node_461842594.4.2 conn=wye Kv=0.1200 Kva=37.5 %R=0.646
New Transformer.2394308769_2394308768 phases=1 windings=3 Xhl=2.139 Xht=2.139 Xlt=1.069
~ wdg=1 bus=node_2522055774.3 conn=wye Kv=19.9186 Kva=37.5 %R=0.646
~ wdg=2 bus=node_2522055728.1.4 conn=wye Kv=0.1200 Kva=37.5 %R=0.646
~ wdg=3 bus=node_2522055728.4.2 conn=wye Kv=0.1200 Kva=37.5 %R=0.646
New Transformer.2265488660_2265488659 phases=1 windings=3 Xhl=2.139 Xht=2.139 Xlt=1.069
~ wdg=1 bus=node_2523116192.3 conn=wye Kv=19.9186 Kva=37.5 %R=0.646
~ wdg=2 bus=node_2523116179.1.4 conn=wye Kv=0.1200 Kva=37.5 %R=0.646
~ wdg=3 bus=node_2523116179.4.2 conn=wye Kv=0.1200 Kva=37.5 %R=0.646
New Transformer.326105666_507512354 phases=1 windings=3 Xhl=2.139 Xht=2.139 Xlt=1.069
~ wdg=1 bus=node_427619986.1 conn=wye Kv=19.9186 Kva=37.5 %R=0.646
~ wdg=2 bus=node_419083710.1.4 conn=wye Kv=0.1200 Kva=37.5 %R=0.646
~ wdg=3 bus=node_419083710.4.2 conn=wye Kv=0.1200 Kva=37.5 %R=0.646
New Transformer.326105245_326745718 phases=1 windings=3 Xhl=2.139 Xht=2.139 Xlt=1.069
~ wdg=1 bus=node_441972570.1 conn=wye Kv=19.9186 Kva=37.5 %R=0.646
~ wdg=2 bus=node_423133050.1.4 conn=wye Kv=0.1200 Kva=37.5 %R=0.646
~ wdg=3 bus=node_423133050.4.2 conn=wye Kv=0.1200 Kva=37.5 %R=0.646
New Transformer.326105994_1574609812 phases=1 windings=3 Xhl=2.139 Xht=2.139 Xlt=1.069
~ wdg=1 bus=node_428431057.3 conn=wye Kv=19.9186 Kva=37.5 %R=0.646
~ wdg=2 bus=node_419780070.1.4 conn=wye Kv=0.1200 Kva=37.5 %R=0.646
~ wdg=3 bus=node_419780070.4.2 conn=wye Kv=0.1200 Kva=37.5 %R=0.646
New Transformer.460179686_1676493538 phases=1 windings=3 Xhl=2.139 Xht=2.139 Xlt=1.069
~ wdg=1 bus=node_729851647.3 conn=wye Kv=19.9186 Kva=37.5 %R=0.646
~ wdg=2 bus=node_729851934.1.4 conn=wye Kv=0.1200 Kva=37.5 %R=0.646
~ wdg=3 bus=node_729851934.4.2 conn=wye Kv=0.1200 Kva=37.5 %R=0.646
New Transformer.326104655_573893100 phases=1 windings=3 Xhl=2.139 Xht=2.139 Xlt=1.069
~ wdg=1 bus=node_435290475.1 conn=wye Kv=19.9186 Kva=37.5 %R=0.646
~ wdg=2 bus=node_423618803.1.4 conn=wye Kv=0.1200 Kva=37.5 %R=0.646
~ wdg=3 bus=node_423618803.4.2 conn=wye Kv=0.1200 Kva=37.5 %R=0.646
New Transformer.326105126_326707823 phases=1 windings=3 Xhl=2.139 Xht=2.139 Xlt=1.069
~ wdg=1 bus=node_427618916.1 conn=wye Kv=19.9186 Kva=37.5 %R=0.646
~ wdg=2 bus=node_419083392.1.4 conn=wye Kv=0.1200 Kva=37.5 %R=0.646
~ wdg=3 bus=node_419083392.4.2 conn=wye Kv=0.1200 Kva=37.5 %R=0.646
New Transformer.436412190_1938268660 phases=1 windings=3 Xhl=2.139 Xht=2.139 Xlt=1.069
~ wdg=1 bus=node_705272467.1 conn=wye Kv=19.9186 Kva=37.5 %R=0.646
~ wdg=2 bus=node_705272514.1.4 conn=wye Kv=0.1200 Kva=37.5 %R=0.646
~ wdg=3 bus=node_705272514.4.2 conn=wye Kv=0.1200 Kva=37.5 %R=0.646
New Transformer.1821566394_1821566393 phases=1 windings=3 Xhl=2.139 Xht=2.139 Xlt=1.069
~ wdg=1 bus=node_2144689921.3 conn=wye Kv=19.9186 Kva=37.5 %R=0.646
~ wdg=2 bus=node_2144689861.1.4 conn=wye Kv=0.1200 Kva=37.5 %R=0.646
~ wdg=3 bus=node_2144689861.4.2 conn=wye Kv=0.1200 Kva=37.5 %R=0.646
New Transformer.1820432755_1820432754 phases=1 windings=3 Xhl=2.139 Xht=2.139 Xlt=1.069
~ wdg=1 bus=node_2143586363.1 conn=wye Kv=19.9186 Kva=37.5 %R=0.646
~ wdg=2 bus=node_2143586322.1.4 conn=wye Kv=0.1200 Kva=37.5 %R=0.646
~ wdg=3 bus=node_2143586322.4.2 conn=wye Kv=0.1200 Kva=37.5 %R=0.646
New Transformer.1570706569_1570706570 phases=1 windings=3 Xhl=2.139 Xht=2.139 Xlt=1.069
~ wdg=1 bus=node_431346949.3 conn=wye Kv=19.9186 Kva=37.5 %R=0.646
~ wdg=2 bus=node_456109862.1.4 conn=wye Kv=0.1200 Kva=37.5 %R=0.646
~ wdg=3 bus=node_456109862.4.2 conn=wye Kv=0.1200 Kva=37.5 %R=0.646
New Transformer.2054544153_2054544152 phases=1 windings=3 Xhl=2.139 Xht=2.139 Xlt=1.069
~ wdg=1 bus=node_2428593449.1 conn=wye Kv=19.9186 Kva=37.5 %R=0.646
~ wdg=2 bus=node_2369175259.1.4 conn=wye Kv=0.1200 Kva=37.5 %R=0.646
~ wdg=3 bus=node_2369175259.4.2 conn=wye Kv=0.1200 Kva=37.5 %R=0.646
New Transformer.326520705_2225846439 phases=1 windings=3 Xhl=2.139 Xht=2.139 Xlt=1.069
~ wdg=1 bus=node_427618821.1 conn=wye Kv=19.9186 Kva=37.5 %R=0.646
~ wdg=2 bus=node_419081889.1.4 conn=wye Kv=0.1200 Kva=37.5 %R=0.646
~ wdg=3 bus=node_419081889.4.2 conn=wye Kv=0.1200 Kva=37.5 %R=0.646
New Transformer.326520783_326724024 phases=1 windings=3 Xhl=2.139 Xht=2.139 Xlt=1.069
~ wdg=1 bus=node_431805322.3 conn=wye Kv=19.9186 Kva=37.5 %R=0.646
~ wdg=2 bus=node_423687062.1.4 conn=wye Kv=0.1200 Kva=37.5 %R=0.646
~ wdg=3 bus=node_423687062.4.2 conn=wye Kv=0.1200 Kva=37.5 %R=0.646
New Transformer.326521288_326721990 phases=1 windings=3 Xhl=2.139 Xht=2.139 Xlt=1.069
~ wdg=1 bus=node_428432030.3 conn=wye Kv=19.9186 Kva=37.5 %R=0.646
~ wdg=2 bus=node_423161780.1.4 conn=wye Kv=0.1200 Kva=37.5 %R=0.646
~ wdg=3 bus=node_423161780.4.2 conn=wye Kv=0.1200 Kva=37.5 %R=0.646
New Transformer.507512344_507512343 phases=1 windings=3 Xhl=2.139 Xht=2.139 Xlt=1.069
~ wdg=1 bus=node_777669597.1 conn=wye Kv=19.9186 Kva=37.5 %R=0.646
~ wdg=2 bus=node_464350334.1.4 conn=wye Kv=0.1200 Kva=37.5 %R=0.646
~ wdg=3 bus=node_464350334.4.2 conn=wye Kv=0.1200 Kva=37.5 %R=0.646
New Transformer.1449173546_1841198528 phases=1 windings=3 Xhl=2.139 Xht=2.139 Xlt=1.069
~ wdg=1 bus=node_1715165514.3 conn=wye Kv=19.9186 Kva=37.5 %R=0.646
~ wdg=2 bus=node_1715165366.1.4 conn=wye Kv=0.1200 Kva=37.5 %R=0.646
~ wdg=3 bus=node_1715165366.4.2 conn=wye Kv=0.1200 Kva=37.5 %R=0.646
New Transformer.1920242500_1920242499 phases=1 windings=3 Xhl=2.034 Xht=2.034 Xlt=1.017
~ wdg=1 bus=node_2237461737.3 conn=wye Kv=19.9186 Kva=37.5 %R=0.727
~ wdg=2 bus=node_2237461709.1.4 conn=wye Kv=0.1200 Kva=37.5 %R=0.727
~ wdg=3 bus=node_2237461709.4.2 conn=wye Kv=0.1200 Kva=37.5 %R=0.727
New Transformer.1415027715_1977387000 phases=1 windings=3 Xhl=2.034 Xht=2.034 Xlt=1.017
~ wdg=1 bus=node_1712382999.3 conn=wye Kv=19.9186 Kva=37.5 %R=0.727
~ wdg=2 bus=node_1712382977.1.4 conn=wye Kv=0.1200 Kva=37.5 %R=0.727
~ wdg=3 bus=node_1712382977.4.2 conn=wye Kv=0.1200 Kva=37.5 %R=0.727
New Transformer.925717781_1596954526 phases=1 windings=3 Xhl=2.034 Xht=2.034 Xlt=1.017
~ wdg=1 bus=node_1185169972.1 conn=wye Kv=19.9186 Kva=37.5 %R=0.727
~ wdg=2 bus=node_1185169886.1.4 conn=wye Kv=0.1200 Kva=37.5 %R=0.727
~ wdg=3 bus=node_1185169886.4.2 conn=wye Kv=0.1200 Kva=37.5 %R=0.727
New Transformer.921363825_2433847792 phases=1 windings=3 Xhl=2.139 Xht=2.139 Xlt=1.069
~ wdg=1 bus=node_1200607143.2 conn=wye Kv=19.9186 Kva=37.5 %R=0.646
~ wdg=2 bus=node_1200607071.1.4 conn=wye Kv=0.1200 Kva=37.5 %R=0.646
~ wdg=3 bus=node_1200607071.4.2 conn=wye Kv=0.1200 Kva=37.5 %R=0.646
New Transformer.326257578_2512870270 phases=1 windings=3 Xhl=2.034 Xht=2.034 Xlt=1.017
~ wdg=1 bus=node_431346580.1 conn=wye Kv=19.9186 Kva=37.5 %R=0.727
~ wdg=2 bus=node_419780478.1.4 conn=wye Kv=0.1200 Kva=37.5 %R=0.727
~ wdg=3 bus=node_419780478.4.2 conn=wye Kv=0.1200 Kva=37.5 %R=0.727
New Transformer.731719502_731719501 phases=1 windings=3 Xhl=2.139 Xht=2.139 Xlt=1.069
~ wdg=1 bus=node_1005577889.1 conn=wye Kv=19.9186 Kva=37.5 %R=0.646
~ wdg=2 bus=node_1005578261.1.4 conn=wye Kv=0.1200 Kva=37.5 %R=0.646
~ wdg=3 bus=node_1005578261.4.2 conn=wye Kv=0.1200 Kva=37.5 %R=0.646
New Transformer.326256830_2587087766 phases=1 windings=3 Xhl=2.139 Xht=2.139 Xlt=1.069
~ wdg=1 bus=node_442942107.3 conn=wye Kv=19.9186 Kva=37.5 %R=0.646
~ wdg=2 bus=node_419515603.1.4 conn=wye Kv=0.1200 Kva=37.5 %R=0.646
~ wdg=3 bus=node_419515603.4.2 conn=wye Kv=0.1200 Kva=37.5 %R=0.646
New Transformer.326256183_1978945750 phases=1 windings=3 Xhl=2.139 Xht=2.139 Xlt=1.069
~ wdg=1 bus=node_2529028998.1 conn=wye Kv=19.9186 Kva=37.5 %R=0.646
~ wdg=2 bus=node_423302403.1.4 conn=wye Kv=0.1200 Kva=37.5 %R=0.646
~ wdg=3 bus=node_423302403.4.2 conn=wye Kv=0.1200 Kva=37.5 %R=0.646
New Transformer.1145536367_1145536366 phases=1 windings=3 Xhl=2.139 Xht=2.139 Xlt=1.069
~ wdg=1 bus=node_1415710853.3 conn=wye Kv=19.9186 Kva=37.5 %R=0.646
~ wdg=2 bus=node_1415710573.1.4 conn=wye Kv=0.1200 Kva=37.5 %R=0.646
~ wdg=3 bus=node_1415710573.4.2 conn=wye Kv=0.1200 Kva=37.5 %R=0.646
New Transformer.326255276_326767842 phases=1 windings=3 Xhl=2.139 Xht=2.139 Xlt=1.069
~ wdg=1 bus=node_431346235.3 conn=wye Kv=19.9186 Kva=37.5 %R=0.646
~ wdg=2 bus=node_423683516.1.4 conn=wye Kv=0.1200 Kva=37.5 %R=0.646
~ wdg=3 bus=node_423683516.4.2 conn=wye Kv=0.1200 Kva=37.5 %R=0.646
New Transformer.326256655_1751660008 phases=1 windings=3 Xhl=2.139 Xht=2.139 Xlt=1.069
~ wdg=1 bus=node_442808188.3 conn=wye Kv=19.9186 Kva=37.5 %R=0.646
~ wdg=2 bus=node_423582502.1.4 conn=wye Kv=0.1200 Kva=37.5 %R=0.646
~ wdg=3 bus=node_423582502.4.2 conn=wye Kv=0.1200 Kva=37.5 %R=0.646
New Transformer.326257059_1521681986 phases=1 windings=3 Xhl=2.139 Xht=2.139 Xlt=1.069
~ wdg=1 bus=node_443720768.1 conn=wye Kv=19.9186 Kva=37.5 %R=0.646
~ wdg=2 bus=node_419415580.1.4 conn=wye Kv=0.1200 Kva=37.5 %R=0.646
~ wdg=3 bus=node_419415580.4.2 conn=wye Kv=0.1200 Kva=37.5 %R=0.646
New Transformer.326254975_326724033 phases=1 windings=3 Xhl=2.139 Xht=2.139 Xlt=1.069
~ wdg=1 bus=node_428431760.1 conn=wye Kv=19.9186 Kva=37.5 %R=0.646
~ wdg=2 bus=node_423682787.1.4 conn=wye Kv=0.1200 Kva=37.5 %R=0.646
~ wdg=3 bus=node_423682787.4.2 conn=wye Kv=0.1200 Kva=37.5 %R=0.646
New Transformer.326253971_326707950 phases=1 windings=3 Xhl=2.139 Xht=2.139 Xlt=1.069
~ wdg=1 bus=node_442806453.3 conn=wye Kv=19.9186 Kva=37.5 %R=0.646
~ wdg=2 bus=node_423144248.1.4 conn=wye Kv=0.1200 Kva=37.5 %R=0.646
~ wdg=3 bus=node_423144248.4.2 conn=wye Kv=0.1200 Kva=37.5 %R=0.646
New Transformer.326254074_1940209548 phases=1 windings=3 Xhl=2.139 Xht=2.139 Xlt=1.069
~ wdg=1 bus=node_432136827.1 conn=wye Kv=19.9186 Kva=37.5 %R=0.646
~ wdg=2 bus=node_419713016.1.4 conn=wye Kv=0.1200 Kva=37.5 %R=0.646
~ wdg=3 bus=node_419713016.4.2 conn=wye Kv=0.1200 Kva=37.5 %R=0.646
New Transformer.325957539_326786905 phases=1 windings=3 Xhl=2.139 Xht=2.139 Xlt=1.069
~ wdg=1 bus=node_442687550.3 conn=wye Kv=19.9186 Kva=37.5 %R=0.646
~ wdg=2 bus=node_423133197.1.4 conn=wye Kv=0.1200 Kva=37.5 %R=0.646
~ wdg=3 bus=node_423133197.4.2 conn=wye Kv=0.1200 Kva=37.5 %R=0.646
New Transformer.2249523621_2550438496 phases=1 windings=3 Xhl=2.139 Xht=2.139 Xlt=1.069
~ wdg=1 bus=node_2535358075.1 conn=wye Kv=19.9186 Kva=37.5 %R=0.646
~ wdg=2 bus=node_2535358112.1.4 conn=wye Kv=0.1200 Kva=37.5 %R=0.646
~ wdg=3 bus=node_2535358112.4.2 conn=wye Kv=0.1200 Kva=37.5 %R=0.646
New Transformer.325956563_326707397 phases=1 windings=3 Xhl=2.139 Xht=2.139 Xlt=1.069
~ wdg=1 bus=node_442542435.3 conn=wye Kv=19.9186 Kva=37.5 %R=0.646
~ wdg=2 bus=node_423628620.1.4 conn=wye Kv=0.1200 Kva=37.5 %R=0.646
~ wdg=3 bus=node_423628620.4.2 conn=wye Kv=0.1200 Kva=37.5 %R=0.646
New Transformer.325955555_326724893 phases=1 windings=3 Xhl=2.139 Xht=2.139 Xlt=1.069
~ wdg=1 bus=node_443720663.2 conn=wye Kv=19.9186 Kva=37.5 %R=0.646
~ wdg=2 bus=node_423392648.1.4 conn=wye Kv=0.1200 Kva=37.5 %R=0.646
~ wdg=3 bus=node_423392648.4.2 conn=wye Kv=0.1200 Kva=37.5 %R=0.646
New Transformer.325955007_326765970 phases=1 windings=3 Xhl=2.139 Xht=2.139 Xlt=1.069
~ wdg=1 bus=node_427950224.2 conn=wye Kv=19.9186 Kva=37.5 %R=0.646
~ wdg=2 bus=node_423389858.1.4 conn=wye Kv=0.1200 Kva=37.5 %R=0.646
~ wdg=3 bus=node_423389858.4.2 conn=wye Kv=0.1200 Kva=37.5 %R=0.646
New Transformer.988264102_2618933152 phases=1 windings=3 Xhl=2.139 Xht=2.139 Xlt=1.069
~ wdg=1 bus=node_432137627.1 conn=wye Kv=19.9186 Kva=37.5 %R=0.646
~ wdg=2 bus=node_419681074.1.4 conn=wye Kv=0.1200 Kva=37.5 %R=0.646
~ wdg=3 bus=node_419681074.4.2 conn=wye Kv=0.1200 Kva=37.5 %R=0.646
New Transformer.326385801_326789647 phases=1 windings=3 Xhl=2.139 Xht=2.139 Xlt=1.069
~ wdg=1 bus=node_431964292.1 conn=wye Kv=19.9186 Kva=37.5 %R=0.646
~ wdg=2 bus=node_423147716.1.4 conn=wye Kv=0.1200 Kva=37.5 %R=0.646
~ wdg=3 bus=node_423147716.4.2 conn=wye Kv=0.1200 Kva=37.5 %R=0.646
New Transformer.326385389_2601310561 phases=1 windings=3 Xhl=4.960 Xht=4.960 Xlt=2.480
~ wdg=1 bus=node_426124210.3 conn=wye Kv=19.9186 Kva=37.5 %R=0.305
~ wdg=2 bus=node_423163574.1.4 conn=wye Kv=0.1200 Kva=37.5 %R=0.305
~ wdg=3 bus=node_423163574.4.2 conn=wye Kv=0.1200 Kva=37.5 %R=0.305
New Transformer.326385311_2702338728 phases=1 windings=3 Xhl=2.034 Xht=2.034 Xlt=1.017
~ wdg=1 bus=node_432135307.3 conn=wye Kv=19.9186 Kva=37.5 %R=0.727
~ wdg=2 bus=node_423679361.1.4 conn=wye Kv=0.1200 Kva=37.5 %R=0.727
~ wdg=3 bus=node_423679361.4.2 conn=wye Kv=0.1200 Kva=37.5 %R=0.727
New Transformer.326384589_326706871 phases=1 windings=3 Xhl=2.139 Xht=2.139 Xlt=1.069
~ wdg=1 bus=node_431967006.3 conn=wye Kv=19.9186 Kva=37.5 %R=0.646
~ wdg=2 bus=node_423696152.1.4 conn=wye Kv=0.1200 Kva=37.5 %R=0.646
~ wdg=3 bus=node_423696152.4.2 conn=wye Kv=0.1200 Kva=37.5 %R=0.646
New Transformer.326384469_510913002 phases=1 windings=3 Xhl=2.139 Xht=2.139 Xlt=1.069
~ wdg=1 bus=node_431501788.2 conn=wye Kv=19.9186 Kva=37.5 %R=0.646
~ wdg=2 bus=node_423682301.1.4 conn=wye Kv=0.1200 Kva=37.5 %R=0.646
~ wdg=3 bus=node_423682301.4.2 conn=wye Kv=0.1200 Kva=37.5 %R=0.646
...